26
	Energy:      39.4216446
C         -0.00549       -1.20984       -1.57202
C          0.01773        1.20192       -2.98601
C         -0.01357        0.00000       -0.81001
C          0.01783       -1.20192       -2.98600
C          0.03364       -0.00000       -3.70365
C         -0.00557        1.20984       -1.57203
H         -0.01338        2.17275       -1.09237
N          0.06882       -0.00000       -5.12965
H          0.02704        2.13897       -3.53632
H          0.02720       -2.13897       -3.53631
H         -0.01323       -2.17275       -1.09236
H         -0.02219       -2.17123        1.03516
C         -0.02282        0.00000        0.75505
C         -0.02342        1.20888        1.51595
C         -0.02283        1.20195        2.93346
C         -0.02178        0.00000        3.65064
C         -0.02282       -1.20195        2.93346
C         -0.02341       -1.20888        1.51595
H         -0.02219        2.17124        1.03516
H         -0.02166        2.14220        3.47690
B         -0.01811        0.00000        5.25378
H         -0.02166       -2.14220        3.47690
H          0.08890       -0.88391       -5.66615
H          0.08862        0.88390       -5.66616
H         -0.01547       -1.00585        5.88732
H         -0.01547        1.00585        5.88732
